data_Mg-DOBDC

_audit_creation_method RASPA-1.0
_audit_creation_date 2012-1-5
_audit_author_name 'Ozgur Yazaydin'

_cell_length_a    26.190
_cell_length_b    26.190
_cell_length_c    6.935
_cell_angle_alpha 90
_cell_angle_beta  90
_cell_angle_gamma 120

_symmetry_cell_setting          trigonal
_symmetry_space_group_name_Hall '-R 3'
_symmetry_space_group_name_H-M  'R -3'
_symmetry_Int_Tables_number     148

loop_
_symmetry_equiv_pos_as_xyz
 'x,y,z'
 '-y,x-y,z'
 '-x+y,-x,z'
 '-x,-y,-z'
 'y,-x+y,-z'
 'x-y,x,-z'
 'x+2/3,y+1/3,z+1/3'
 '-y+2/3,x-y+1/3,z+1/3'
 '-x+y+2/3,-x+1/3,z+1/3'
 '-x+2/3,-y+1/3,-z+1/3'
 'y+2/3,-x+y+1/3,-z+1/3'
 'x-y+2/3,x+1/3,-z+1/3'
 'x+1/3,y+2/3,z+2/3'
 '-y+1/3,x-y+2/3,z+2/3'
 '-x+y+1/3,-x+2/3,z+2/3'
 '-x+1/3,-y+2/3,-z+2/3'
 'y+1/3,-x+y+2/3,-z+2/3'
 'x-y+1/3,x+2/3,-z+2/3'

loop_
_atom_site_label
_atom_site_type_symbol
_atom_site_fract_x
_atom_site_fract_y
_atom_site_fract_z
Zn1      Zn    0.64159      0.68514      0.47189  
O1       O     0.96943      0.29776      0.36038  
O2       O     0.92763      0.23048      0.6102   
O3       O     0.25494      0.94205      0.67383  
C1       C     0.92667      0.2458       0.42703  
C2       C     0.87918      0.20711      0.29083  
C3       C     0.21254      0.88926      0.7549   
C4       C     0.1663       0.84759      0.63558  
H1       H     0.16529      0.85803      0.47918  


